<?xml version="1.0" encoding="UTF-8"?>

<!-- generated on 2025-12-09 00:08:33.705827 by Eclipse SUMO randomTrips.py v1_25_0+0000-ac6c5a6752d
<configuration>
    <net-file value="config/jaydev_aiims.net.xml"/>
    <output-trip-file value="config/jaydev_trips.xml"/>
    <fringe-factor value="10"/>
    <end value="300.0"/>
    <period value="0.5"/>
</configuration>
-->

<!-- generated on 2025-12-09T00:08:33.576355+05:30 by Eclipse SUMO duarouter 1.25.0
<duarouterConfiguration xmlns:xsi="http://www.w3.org/2001/XMLSchema-instance" xsi:noNamespaceSchemaLocation="http://sumo.dlr.de/xsd/duarouterConfiguration.xsd">

    <input>
        <net-file value="config/jaydev_aiims.net.xml"/>
        <route-files value="config/jaydev_trips.xml"/>
    </input>

    <output>
        <output-file value="routes.rou.xml"/>
        <alternatives-output value="NUL"/>
    </output>

    <time>
        <begin value="0"/>
        <end value="300.0"/>
    </time>

    <report>
        <no-warnings value="true"/>
        <ignore-errors value="true"/>
        <no-step-log value="true"/>
    </report>

</duarouterConfiguration>
-->

<routes xmlns:xsi="http://www.w3.org/2001/XMLSchema-instance" xsi:noNamespaceSchemaLocation="http://sumo.dlr.de/xsd/routes_file.xsd">
    <vehicle id="0" depart="0.00">
        <route edges="-478228077 368430007#2 -368430022#1 -368430022#0 -368412051#0 464283097#4 464283097#5 464283097#6 464283097#7 464283097#8 279956988#0 279956988#1 -876449603#8 -876449603#7 -876449603#6 -478232314#5 -478232314#4 -478235060 876449604#2 876449604#3 876449604#4 -368732564#10 -368732564#9 -478232312#1"/>
    </vehicle>
    <vehicle id="1" depart="0.50">
        <route edges="464283097#0 464283097#1 464283097#2-AddedOnRampEdge 464283097#2 464283097#4 464283097#5 464283097#6 464283097#7 464283097#8 279956988#0 279956988#1 279956988#2 279956988#3 279956988#4 279956988#5 279956988#6 279956988#7 874670556#1 874670556#2 368732314#0 368732314#2 368732314#4 368732270#0"/>
    </vehicle>
    <vehicle id="2" depart="1.00">
        <route edges="-1184384175 464283097#4 464283097#5 464283097#6 464283097#7 464283097#8 279956988#0 279956988#1 -876449603#8 -876449603#7 -876449603#6 -876449603#5 -876449603#3 -876449603#1 -876449603#0 -478230131"/>
    </vehicle>
    <vehicle id="3" depart="1.50">
        <route edges="368412168#1 -368412115 870292572#2 872223450#0 872223450#1 872223450#3 876449603#1 876449603#3 876449603#5 876449603#6 876449603#7 876449603#8 279956988#2 279956988#3 279956988#4 279956988#5 279956988#6 279956988#7 300173739#3 300173739#4 300173739#5 300173739#6 300173739#7 300173739#8 300173739#9 300173739#10 300173739#11 300173739#12"/>
    </vehicle>
    <vehicle id="4" depart="2.00">
        <route edges="-368732205#2 -368732205#0 368732564#2 368732564#3 876430673#0 876430673#1 478232313#3 478232313#5 478232313#6 478232313#7 478232313#8 279956988#6 279956988#7 300173739#3 300173739#4 300173739#5 300173739#6 300173739#7 300173739#8 300173739#9 300173739#10 368412095#0 368412095#1"/>
    </vehicle>
    <vehicle id="5" depart="2.50">
        <route edges="478232311#0 -1112869035 875069015#1 -368732564#9 876430676#0 478232313#0 478232313#1 478232313#2 478232313#3 478232313#5 478232313#6 478232313#7 478232313#8 279956988#6 279956988#7 300173739#3 26754941#0 26754941#1 -26754472#1"/>
    </vehicle>
    <vehicle id="6" depart="3.00">
        <route edges="478232311#0 -1112869035 -875069015#0 478232312#1 368732564#9"/>
    </vehicle>
    <vehicle id="7" depart="3.50">
        <route edges="-594012800#1 -594012800#0 -478232313#5 -478232313#3 478232314#0 478232314#1 478232314#2 478232314#3 478232314#4 478232314#5 -876449603#5 -876449603#3 -876449603#1 -876449603#0 -872223450#1 -872223450#0 870292572#3 368412186#0 368412186#1 292023379#0 292023379#1 292023379#2 292023379#3 -478052001"/>
    </vehicle>
    <vehicle id="8" depart="4.00">
        <route edges="876430678 876438444#1 368732564#7 876430676#0 876430676#1 876430676#2 -876430676#2"/>
    </vehicle>
    <vehicle id="9" depart="4.50">
        <route edges="478232311#0 478232311#2 368430037#1 368430037#2 -368412200#3 -368412200#2 -368430033#2 478230133 368412054#2 368412054#3 872223445#4 872223445#5 872223445#6 872223445#7 872223445#8 218526282#0 478228076"/>
    </vehicle>
    <vehicle id="10" depart="5.00">
        <route edges="26754617#0 26754617#1 26754617#2 874670556#1 874670556#2 368732314#0 368732314#2 368732314#4 368732314#5 368732564#0 368732564#1 368732564#2 368732564#3 876430673#0"/>
    </vehicle>
    <vehicle id="11" depart="5.50">
        <route edges="-744519295 -743200789#0 -368412095#0 300173739#11 300173739#12 300173739#13 300173739#14 300173739#15"/>
    </vehicle>
    <vehicle id="12" depart="6.00">
        <route edges="478232314#3 478232314#4 478232314#5 -876449603#5 -876449603#3 -876449603#1 -876449603#0 -872223450#1 -872223450#0 870292572#3 368412186#0 368412186#1 368412186#2 368412186#3"/>
    </vehicle>
    <vehicle id="13" depart="6.50">
        <route edges="594012800#1 876422462 -478232313#6 -478232313#5 -478232313#3 478232314#0 478232314#1 478232314#2 478232314#3 478232314#4 478232314#5 -876449603#5 -876449603#3 -876449603#1 -876449603#0 -872223450#1 -872223450#0 870292572#3 368412186#0 368412186#1 292023379#0 292023379#1 292023379#2 292023379#3 292023379#4 368412084"/>
    </vehicle>
    <vehicle id="14" depart="7.00">
        <route edges="368430037#2 -368412200#3 -368412200#2 -368430033#2 478230133 368412054#2 368412054#3 872223445#4 368412055#0 -368412055#0"/>
    </vehicle>
    <vehicle id="15" depart="7.50">
        <route edges="-368732313#2 876449597#0 876449597#1 -368732188#0 368732564#3 368732564#4 368732564#5 368732564#6 368732564#7 368732564#9 368732564#10 -876449604#4 -875066526"/>
    </vehicle>
    <vehicle id="16" depart="8.00">
        <route edges="368412089 -292023379#0 -368412186#1 368412168#1 -368412115 870292572#2 872223450#0 872223450#1 872223450#3 876449603#1 876449603#3 876449603#5 -478232314#5 -478232314#4 -478232314#3 -478232314#2 -478232314#1 -478232314#0 -876430673#1 -876430673#0 -368732564#3 368732188#0 368732188#1 -876449598"/>
    </vehicle>
    <vehicle id="17" depart="8.50">
        <route edges="-478228076 218526282#1 218526282#2 218526282#3 218526282#5 218526282#6 464283097#2-AddedOnRampEdge 464283097#2 464283097#4 464283097#5 464283097#6 464283097#7 464283097#8 279956988#0 279956988#1 279956988#2 279956988#3 279956988#4 279956988#5 -478232313#8 -478232313#7 -876422462 876422463"/>
    </vehicle>
    <vehicle id="18" depart="9.00">
        <route edges="-368412186#3 -368412186#2 -368412186#1 368412168#1 -368412115 870292572#2 872223445#6 872223445#7 872223445#8 218526282#0 478228076"/>
    </vehicle>
    <vehicle id="19" depart="9.50">
        <route edges="-368412186#0 368412186#0 368412168#1 -368412115 870292572#2 872223450#0 872223450#1 872223450#3 876449603#1 368430001 876449604#1 876449604#2 876449604#3 -876449604#3"/>
    </vehicle>
    <vehicle id="20" depart="10.00">
        <route edges="876449603#1 368430001 876449604#1 876449604#2 876449604#3 876449604#4 -875069016#1 -875069016#0 478232311#2 368430011"/>
    </vehicle>
    <vehicle id="21" depart="10.50">
        <route edges="478235063#1 478235063#2 368412158#1 -478232314#5 -478232314#4 -478232314#3 -478232314#2 478232314#2"/>
    </vehicle>
    <vehicle id="22" depart="11.00">
        <route edges="-368732196#1 -368732196#0 368732270#1 368732270#3 368732270#4 478232313#5 594012800#0 876422464"/>
    </vehicle>
    <vehicle id="23" depart="11.50">
        <route edges="872223445#0 872223445#1 872223445#2 -875069017#1 -875069017#0 -368412054#2 -876449606 368430033#2 368412200#2 -876449604#5 -368732564#10 -368732564#9 -368732564#7 -368732564#6 -368732564#5 -368732564#4 -368732564#3 -368732564#2 368732205#0 368732205#2 876430668#0 876430668#1 -876430669#0"/>
    </vehicle>
    <vehicle id="24" depart="12.00">
        <route edges="368412177#0 368412177#1 279717600#2 279717600#3 870292572#2 872223450#0 872223450#1 872223450#3 876449603#1 876449603#3 876449603#5 -478232314#5 1126956970"/>
    </vehicle>
    <vehicle id="25" depart="12.50">
        <route edges="876422432#1 -876422432#1 -876422432#0 -26754472#3 -26754472#1 -26754472#0 300173739#1 874670556#1 876430660#0 876430660#1 876430660#3 876430660#4 -368732196#0 368732270#1 368732270#3 876430674 876430673#1 478232314#0 478232314#1 478232314#2 478232314#3 478232314#4 478232314#5 -876449603#5 -876449603#3 -876449603#1 -876449603#0 -872223450#1 -872223450#0 872223445#6 872223445#7 872223445#8 218526282#0 218526282#1 218526282#2"/>
    </vehicle>
    <vehicle id="26" depart="13.00">
        <route edges="-478228074#1 -875063239 218526282#5 218526282#6 464283097#2-AddedOnRampEdge 464283097#2 464283097#4 368412158#0 -478235063#2"/>
    </vehicle>
    <vehicle id="27" depart="13.50">
        <route edges="279717600#3 870292572#2 872223450#0 872223450#1 872223450#3 876449603#1 876449603#3 876449603#5 876449603#6 876449603#7 876449603#8 279956988#2 279956988#3 279956988#4 279956988#5 279956988#6 279956988#7 874670556#1 874670556#2 874670556#3 874670556#4 874670556#5 874670556#6"/>
    </vehicle>
    <vehicle id="28" depart="14.00">
        <route edges="-875066525#1 -875066525#0 -876430676#1 -876430676#0 -478232312#1 -478232312#0"/>
    </vehicle>
    <vehicle id="29" depart="14.50">
        <route edges="-292023379#4 292023379#4 292023379#5 368412129#1 279717600#3 870292572#2 872223450#0 872223450#1 872223450#3 876449603#1 368430001 876449604#1 876449604#2 876449604#3 876449604#4 876449604#5 368412200#3 368412200#4"/>
    </vehicle>
    <vehicle id="30" depart="15.00">
        <route edges="876449604#3 876449604#4 -368732564#10 -368732564#9 876430676#0 478232313#0 478232313#1 478232313#2 478232313#3 478232313#5 478232313#6 478232313#7 478232313#8 279956988#6"/>
    </vehicle>
    <vehicle id="31" depart="15.50">
        <route edges="876438444#0 876438444#1 876430675 478232313#2 478232313#3 478232313#5 478232313#6 478232313#7 478232313#8 279956988#6 279956988#7 300173739#3 300173739#4 300173739#5 300173739#6 300173739#7 300173739#8 300173739#9 300173739#10 368412095#0 743200789#0 744519295"/>
    </vehicle>
    <vehicle id="32" depart="16.00">
        <route edges="-1126956970 478232314#5 -876449603#5 -876449603#3 -876449603#1 -876449603#0 -872223450#1 -872223450#0 870292572#3 368412186#0 -368412168#0 -368412072#2 -368412072#1 -368412106 478052004"/>
    </vehicle>
    <vehicle id="33" depart="16.50">
        <route edges="368430007#0 368430007#1 368430007#2 -368430022#1 -368430022#0 -368412051#0 464283097#4 464283097#5 464283097#6 464283097#7 464283097#8 279956988#0 279956988#1 279956988#2 279956988#3 279956988#4 279956988#5 279956988#6 279956988#7 279956988#9"/>
    </vehicle>
    <vehicle id="34" depart="17.00">
        <route edges="-478228076 218526282#1 218526282#2 218526282#3 218526282#5 218526282#6 464283097#2-AddedOnRampEdge 464283097#2 464283097#4 464283097#5 464283097#6 464283097#7 464283097#8 279956988#0 279956988#1 -876449603#8 -876449603#7 -876449603#6 -478232314#5 -478232314#4 -478235060 876449604#2 876449604#3 876449604#4 -875069016#1 -875069016#0 478232311#2 368430011"/>
    </vehicle>
    <vehicle id="35" depart="17.50">
        <route edges="-876430663 -876430661#1 876430661#1"/>
    </vehicle>
    <vehicle id="36" depart="18.00">
        <route edges="872223445#0 872223445#1 872223445#2 872223445#3 872223445#4 872223445#5 872223450#0 872223450#1 872223450#3 876449603#1 876449603#3 876449603#5 876449603#6 876449603#7 876449603#8 279956988#2 279956988#3 279956988#4 279956988#5 279956988#6 279956988#7 300173739#3 300173739#4 300173739#5 300173739#6 300173739#7 300173739#8 300173739#9 300173739#10 300173739#11 300173739#12 300173739#13 -743200785 -743200789#5 -743200789#4 -743200789#3"/>
    </vehicle>
    <vehicle id="37" depart="18.50">
        <route edges="1112869035 478232311#2 368430037#1 368430037#2 -368412200#3 -368412200#2 -368430033#2 478230133 368412054#2 368412054#3 872223445#4 872223445#5 872223445#6 872223445#7 872223445#8 218526282#0 218526282#1 218526282#2 218526282#3 875063239 -478228074#0"/>
    </vehicle>
    <vehicle id="38" depart="19.00">
        <route edges="875069017#1 872223445#3 872223445#4 872223445#5 870292572#3"/>
    </vehicle>
    <vehicle id="39" depart="19.50">
        <route edges="-478232312#1 875069015#0 1112869035 478232311#2 368430011"/>
    </vehicle>
    <vehicle id="40" depart="20.00">
        <route edges="300173739#0 300173739#1 874670556#1 876430660#0 876430660#1 876430660#3 876430660#4 -368732196#0 368732270#1 368732270#3 876430674 876430673#1 478232314#0 478232314#1 478232314#2 478232314#3 478232314#4 478232314#5 -876449603#5 -876449603#3 -876449603#1 -876449603#0 -872223450#1 -872223450#0 870292572#3 368412186#0 368412186#1 292023379#0 292023379#1 292023379#2 292023379#3 -478052001"/>
    </vehicle>
    <vehicle id="41" depart="20.50">
        <route edges="478054690 368412106 368412072#1 368412072#2 368412168#0 368412186#1 292023379#0 292023379#1"/>
    </vehicle>
    <vehicle id="42" depart="21.00">
        <route edges="478228075 -368430022#0 -368412051#0 464283097#4 464283097#5 464283097#6 464283097#7 464283097#8 279956988#0 279956988#1 279956988#2 279956988#3 279956988#4 279956988#5 279956988#6 279956988#7"/>
    </vehicle>
    <vehicle id="43" depart="21.50">
        <route edges="-1126956971 -478235061#0 876449603#5 876449603#6 876449603#7 876449603#8 279956988#2 279956988#3 279956988#4 279956988#5 279956988#6 279956988#7 300173739#3 26754941#0 26754941#1 26754472#3 876422432#0"/>
    </vehicle>
    <vehicle id="44" depart="22.00">
        <route edges="872223445#1 872223445#2 872223445#3 872223445#4 872223445#5 872223450#0 872223450#1 872223450#3 876449603#1 876449603#3 876449603#5 876449603#6 876449603#7 876449603#8 279956988#2 279956988#3 279956988#4 279956988#5 279956988#6 279956988#7 300173739#3 300173739#4 300173739#5 300173739#6 300173739#7 300173739#8 300173739#9 300173739#10 368412095#0 743200789#0 743200789#1 743200789#2 743200789#3 743200787"/>
    </vehicle>
    <vehicle id="45" depart="22.50">
        <route edges="-478232314#3 -478232314#2 478232314#2 478232314#3 478232314#4 478232314#5 -876449603#5 -876449603#3 -876449603#1 -876449603#0 -872223450#1 -872223450#0 870292572#3 368412186#0 368412186#1 292023379#0 -368412089"/>
    </vehicle>
    <vehicle id="46" depart="23.00">
        <route edges="872223445#0 872223445#1 872223445#2 872223445#3 872223445#4 872223445#5 872223450#0 872223450#1 872223450#3 876449603#1 876449603#3 876449603#5 -478232314#5 -478232314#4 -478232314#3 -478232314#2 -478232314#1 -478232314#0 478232313#3 478232313#5 594012800#0 876422464"/>
    </vehicle>
    <vehicle id="47" depart="23.50">
        <route edges="-26754829#2 26754791#0 26754791#1"/>
    </vehicle>
    <vehicle id="48" depart="24.00">
        <route edges="478054690 368412106 368412072#1 368412072#2 368412168#0 368412168#1 -368412115 870292572#2 872223450#0 872223450#1 872223450#3 876449603#1 368430001 876449604#1 876449604#2 876449604#3 876449604#4 -368732564#10 -368732564#9 -368732564#7 -368732564#6 -368732564#5 368732212#0 -368732198#1"/>
    </vehicle>
    <vehicle id="49" depart="24.50">
        <route edges="-876430679 -368732198#0 -368732188#0 368732564#3 876430673#0 876430673#1 478232313#3 478232313#5 478232313#6 478232313#7 478232313#8 279956988#6 279956988#7 300173739#3 300173739#4 300173739#5 300173739#6 300173739#7 300173739#8 300173739#9 300173739#10 300173739#11 300173739#12 300173739#13 300173739#14 300173739#15"/>
    </vehicle>
    <vehicle id="50" depart="25.00">
        <route edges="-478228074#1 -875063239 218526282#5 218526282#6 464283097#2-AddedOnRampEdge 464283097#2 464283097#4 464283097#5 464283097#6 464283097#7 464283097#8 279956988#0 279956988#1 -876449603#8 -876449603#7 -876449603#6 -876449603#5 -876449603#3 -876449603#1 -876449603#0 -872223450#1 -872223450#0 870292572#3 870292572#4"/>
    </vehicle>
    <vehicle id="51" depart="25.50">
        <route edges="-875099861 -875069016#0 -478232311#0"/>
    </vehicle>
    <vehicle id="52" depart="26.00">
        <route edges="26754617#0 26754617#1 26754617#2 874670556#1 876430660#0 876430660#1 876430660#3 876430660#4 -368732196#0 368732270#1 368732270#3 876430674 876430673#1 478232314#0 478232314#1 478232314#2 478232314#3 478232314#4 478232314#5 -876449603#5 -876449603#3 -876449603#1 -876449603#0 -872223450#1 -872223450#0 872223445#6 872223445#7 872223445#8 218526282#0 478228076"/>
    </vehicle>
    <vehicle id="53" depart="26.50">
        <route edges="-368430013#1 478230137 -876449604#5 -368732564#10 -368732564#9 -368732564#7 -368732564#6 -368732564#5 -368732564#4 -368732564#3 -368732564#2 368732205#0 368732205#2 876430668#0 876430668#1 -876430669#0"/>
    </vehicle>
    <vehicle id="54" depart="27.00">
        <route edges="876449604#2 876449604#3 876449604#4 876449604#5 -478230137 368430013#1"/>
    </vehicle>
    <vehicle id="55" depart="27.50">
        <route edges="-876422464 -594012800#0 478232313#6 478232313#7 478232313#8 279956988#6 279956988#7 300173739#3 26754941#0 26754941#1"/>
    </vehicle>
    <vehicle id="56" depart="28.00">
        <route edges="-368412055#0 368412055#0 368412055#1 876449604#1 876449604#2 -876430676#3 -876430676#2 -876430676#1 478232313#0 478232313#1 -478232313#1"/>
    </vehicle>
    <vehicle id="57" depart="28.50">
        <route edges="-478235065 478235065 478235062#2 279956988#1 279956988#2 279956988#3 279956988#4 279956988#5 279956988#6 279956988#7 300173739#3 300173739#4 300173739#5 300173739#6 300173739#7 300173739#8 300173739#9 300173739#10 368412095#0 368412095#1"/>
    </vehicle>
    <vehicle id="58" depart="29.00">
        <route edges="-368732313#2 876449597#0 876449597#1 -368732188#0 368732564#3 368732564#4 368732564#5 368732564#6 368732564#7 -478232312#1 -478232312#0"/>
    </vehicle>
    <vehicle id="59" depart="29.50">
        <route edges="-368732313#2 876449597#0 876449597#1 -368732188#0 368732564#3 368732564#4 368732564#5 368732564#6 368732564#7 876430676#0 876430676#1 875066525#0 875066525#1"/>
    </vehicle>
    <vehicle id="60" depart="30.00">
        <route edges="506635829#3 300173739#5 300173739#6 26754950#0 26754950#1 -876422432#1 -876422432#0 -26754472#3 -26754472#1 -26754472#0 300173739#1 874670556#1 876430660#0 876430660#1 876430660#3 876430660#4 -368732196#0 368732270#1 368732270#3 876430674 876430673#1 478232314#0 478232314#1 478232314#2 478232314#3 478232314#4 478232314#5 -876449603#5 -876449603#3 -876449603#1 -876449603#0 -872223450#1 -872223450#0 870292572#3 368412186#0 368412168#1 368412168#2 -368412168#2"/>
    </vehicle>
    <vehicle id="61" depart="30.50">
        <route edges="-368732314#5 368732270#0 368732196#0 368732196#1"/>
    </vehicle>
    <vehicle id="62" depart="31.00">
        <route edges="-368732196#1 -368732196#0 -368732270#0 368732314#5 368732564#0 368732564#1 368732564#2 368732564#3 368732564#4 368732564#5 -876430681 -368732240"/>
    </vehicle>
    <vehicle id="63" depart="31.50">
        <route edges="876430670 368732564#0 368732564#1 368732564#2 368732564#3 368732564#4 368732564#5 368732564#6 368732564#7 368732564#9 368732564#10 876449604#5 -368412200#2 -368430033#2 478230133 368412054#2"/>
    </vehicle>
    <vehicle id="64" depart="32.00">
        <route edges="-876430676#3 -876430676#2 -876430676#1 478232313#0 478232313#1 478232313#2 478232313#3 478232315"/>
    </vehicle>
    <vehicle id="65" depart="32.50">
        <route edges="478232311#0 478232311#2 368430037#1 368430037#2 -368412200#3 -368412200#2 -368430033#2 478230133 368412054#2 368412054#3 872223445#4 872223445#5 872223445#6 872223445#7 -478228078"/>
    </vehicle>
    <vehicle id="66" depart="33.00">
        <route edges="-875099861 -875069016#0 -1112869035 875069015#1 -368732564#9 876430676#0 478232313#0 478232313#1 478232313#2 478232313#3 478232313#5 478232313#6 478232313#7 478232313#8 279956988#6 279956988#7 300173739#3 26754941#0 26754941#1 26754472#3 26754472#4 26754472#6 26754472#7 26754472#8 26754472#9"/>
    </vehicle>
    <vehicle id="67" depart="33.50">
        <route edges="368732581#0 368732581#1 368732581#2 -368732581#2 -368732581#1 -368732581#0 26754960#1 26754960#2 -26754472#7 -26754472#6 -26754472#4 -26754472#3 -26754472#1 -26754472#0 300173739#1 874670556#1 874670556#2 368732314#0 368732314#2 -876430669#1 -876430668#1 -876430668#0 368732205#3"/>
    </vehicle>
    <vehicle id="68" depart="34.00">
        <route edges="876449598 876449597#1 -368732188#0 368732564#3 368732564#4 368732564#5 368732564#6 368732564#7 368732564#9 368732564#10 876449604#5 -368412200#2 -368412200#1"/>
    </vehicle>
    <vehicle id="69" depart="34.50">
        <route edges="-875066525#1 -875066525#0 -876430676#1 -876430676#0 -368732564#7 -876438444#1 -876430678"/>
    </vehicle>
    <vehicle id="70" depart="35.00">
        <route edges="594012800#1 876422462 -478232313#6 -478232313#5 -478232313#3 478232314#0 478232314#1 478232314#2 478232314#3 478232314#4 478232314#5 -368412158#1 -478235063#2 -478235064"/>
    </vehicle>
    <vehicle id="71" depart="35.50">
        <route edges="-875099861 875069016#1 -876449604#4 -876449604#3 -876449604#2 -876449604#1 -876449604#0 -368412055#0 872223445#5 872223445#6 872223445#7 872223445#8 218526282#0 218526282#1 -875063240"/>
    </vehicle>
    <vehicle id="72" depart="36.00">
        <route edges="-478052002#1 -478052002#0 368412168#0 368412168#1 -368412115 870292572#2 872223450#0 872223450#1 872223450#3 876449603#1 368430001 876449604#1 876449604#2 876449604#3 876449604#4 -875069016#1 875099861"/>
    </vehicle>
    <vehicle id="73" depart="36.50">
        <route edges="-876422464 -594012800#0 478232313#6 478232313#7 478232313#8 279956988#6 279956988#7 300173739#3 300173739#4 300173739#5 300173739#6 300173739#7 300173739#8 300173739#9 300173739#10 368412095#0 743200789#0 744519295"/>
    </vehicle>
    <vehicle id="74" depart="37.00">
        <route edges="876457992 876430668#1 876430669#1 368732314#4 368732270#0 368732270#1 368732270#3 368732270#4 478232313#5 478232313#6 478232313#7 478232313#8 279956988#6 279956988#7 300173739#3 300173739#4 300173739#5 300173739#6 300173739#7 300173739#8 300173739#9 300173739#10 368412095#0 743200789#0 743200789#1 743200789#2 743200788"/>
    </vehicle>
    <vehicle id="75" depart="37.50">
        <route edges="876438444#0 876438444#1 368732564#7 368732564#9 -875069015#1 1112869035 875069016#0 875099861"/>
    </vehicle>
    <vehicle id="76" depart="38.00">
        <route edges="478235064 478235063#2 368412158#1 -876449603#5 -876449603#3 -876449603#1 -876449603#0 -872223450#1 -872223450#0 872223445#6 872223445#7 872223445#8 218526282#0 218526282#1 218526282#2 -478228073#1 -478228073#0"/>
    </vehicle>
    <vehicle id="77" depart="38.50">
        <route edges="-876449603#1 876449603#1 368430001 876449604#1 876449604#2 876449604#3 876449604#4 -875069016#1 -875069016#0 -478232311#0"/>
    </vehicle>
    <vehicle id="78" depart="39.00">
        <route edges="-875066525#1 -875066528 876430676#3 -876449604#2 -876449604#1 -368430001 -876449603#1 -876449603#0 -872223450#1 -872223450#0 870292572#3 368412186#0 368412186#1 292023379#0 -368412089"/>
    </vehicle>
    <vehicle id="79" depart="39.50">
        <route edges="-478228074#1 -875063239 218526282#5 218526282#6 464283097#2-AddedOnRampEdge 464283097#2 464283097#4 464283097#5 464283097#6 464283097#7 464283097#8 279956988#0 279956988#1 279956988#2 279956988#3 279956988#4 279956988#5 -478232313#8 -478232313#7 -478232313#6 -478232313#5 478232315"/>
    </vehicle>
    <vehicle id="80" depart="40.00">
        <route edges="876430678 876438444#1 368732564#7 368732564#9 368732564#10 -876449604#4 -876449604#3 -876449604#2 876449604#2"/>
    </vehicle>
    <vehicle id="81" depart="40.50">
        <route edges="-368412148 368412177#1 279717600#2 279717600#3 870292572#2 872223450#0 872223450#1 872223450#3 876449603#1 368430001 876449604#1 876449604#2 876449604#3 876449604#4 876449604#5 -368412200#2 -368430033#2 478230133 368412054#2 875069017#0 875069017#1 -875069017#1"/>
    </vehicle>
    <vehicle id="82" depart="41.00">
        <route edges="876438444#0 876438444#1 368732564#7 368732564#9 368732564#10 -876449604#4 -876449604#3 -876449604#2 -876449604#1 -368430001 -876449603#1 -876449603#0 -872223450#1 -872223450#0 870292572#3 368412186#0 368412186#1 292023379#0 292023379#1 292023379#2 292023379#3 292023379#4 368412084"/>
    </vehicle>
    <vehicle id="83" depart="41.50">
        <route edges="26754617#1 26754617#2 874670556#1 876430660#0 876430660#1 876430660#3 876430660#4 -368732196#0 368732270#1 368732270#3 876430674 876430673#1 478232314#0 478232314#1 478232314#2 478232314#3 478232314#4 478232314#5 -876449603#5 -876449603#3 -876449603#1 -876449603#0 -872223450#1 -872223450#0 872223445#6 872223445#7 872223445#8 368430007#0 478230130"/>
    </vehicle>
    <vehicle id="84" depart="42.00">
        <route edges="-26754472#9 -26754472#8 -26754960#2 -26754960#1 -26754960#0 300173739#10 368412095#0 368412095#1"/>
    </vehicle>
    <vehicle id="85" depart="42.50">
        <route edges="1184391590 478228073#1 218526282#3 218526282#5 218526282#6 464283097#2-AddedOnRampEdge 464283097#2 464283097#4 464283097#5 464283097#6 464283097#7 464283097#8 279956988#0 279956988#1 279956988#2 279956988#3 279956988#4 279956988#5 279956988#6 279956988#7 300173739#3 300173739#4 300173739#5 300173739#6 300173739#7 300173739#8 300173739#9 300173739#10 300173739#11 300173739#12 300173739#13 -743200785 743200789#6"/>
    </vehicle>
    <vehicle id="86" depart="43.00">
        <route edges="-368412148 368412177#1 279717600#2 279717600#3 870292572#2 872223450#0 872223450#1 872223450#3 876449603#1 876449603#3 876449603#5 -478232314#5 -478232314#4 -478232314#3 -478232314#2 -478232314#1 -478232314#0 -876430673#1 -876430674 -368732270#3 -368732270#1 368732196#0 -876430660#4 -876430660#3 876430663"/>
    </vehicle>
    <vehicle id="87" depart="43.50">
        <route edges="-368732314#0 874670556#3 -368732205#3 -368732205#2 -368732205#0 368732564#2 368732564#3 368732564#4 368732564#5 368732564#6 368732564#7 368732564#9 368732564#10 876449604#5 -368412200#2 -368430033#2 -368430033#0"/>
    </vehicle>
    <vehicle id="88" depart="44.00">
        <route edges="874670556#5 368732313#0 368732313#1 876449597#0 876449597#1 -368732188#0 368732564#3 876430673#0 876430673#1 478232314#0 478232314#1 478232314#2 478232314#3 478232314#4 478232314#5 -368412158#1 -478235063#2 -478235063#1"/>
    </vehicle>
    <vehicle id="89" depart="44.50">
        <route edges="-875099861 -875069016#0 -1112869035 875069015#1 -368732564#9 876430676#0 478232313#0 478232313#1 478232313#2 478232313#3 478232313#5 478232313#6 478232313#7 478232313#8 279956988#6 279956988#7 300173739#3 300173739#4 300173739#5 300173739#6 300173739#7 300173739#8 300173739#9 300173739#10 368412095#0 368412095#1"/>
    </vehicle>
    <vehicle id="90" depart="45.00">
        <route edges="-368430022#1 -368430022#0 -368412051#0 464283097#4 464283097#5 464283097#6 464283097#7 464283097#8 279956988#0 279956988#1 -876449603#8 -876449603#7 -876449603#6 -876449603#5 -876449603#3 -876449603#1 -876449603#0 -872223450#1 -872223450#0 870292572#3 368412186#0 -368412168#0 -368412072#2 -368412072#1 -368412106 478052004"/>
    </vehicle>
    <vehicle id="91" depart="45.50">
        <route edges="-368732564#0 -368732314#5 368732270#0 368732270#1 368732270#3 876430674 876430673#1 478232314#0 478232314#1 478232314#2 478232314#3 478232314#4 1126956970"/>
    </vehicle>
    <vehicle id="92" depart="46.00">
        <route edges="368412200#0 368412200#1 368412200#2 -876449604#5 -876449604#4 -876449604#3 -876430676#3 -876430676#2 -876430676#1 478232313#0 478232313#1 478232313#2 478232313#3 478232313#5 478232313#6 -876422462"/>
    </vehicle>
    <vehicle id="93" depart="46.50">
        <route edges="-478232315 -478232313#3 -478232313#2 -478232313#1 -478232313#0 876430676#1 876430676#2 876430676#3 876449604#3 876449604#4 876449604#5 -368412200#2 -368430033#2 478230133 478230134"/>
    </vehicle>
    <vehicle id="94" depart="47.00">
        <route edges="876457987#0 876457987#1 368732564#1 368732564#2 368732564#3 368732564#4 368732564#5 368732564#6 368732564#7 876430676#0 876430676#1 876430676#2 876430676#3 876449604#3"/>
    </vehicle>
    <vehicle id="95" depart="47.50">
        <route edges="-478228074#1 -875063239 218526282#5 218526282#6 464283097#2-AddedOnRampEdge 464283097#2 464283097#4 464283097#5 464283097#6 464283097#7 464283097#8 279956988#0 279956988#1 -876449603#8 -876449603#7 -876449603#6 -478232314#5 -478232314#4 -478232314#3 -478232314#2 876422460"/>
    </vehicle>
    <vehicle id="96" depart="48.00">
        <route edges="872223445#3 -368412054#3 -368412054#2 -368412054#0 872223445#1"/>
    </vehicle>
    <vehicle id="97" depart="48.50">
        <route edges="478235062#1 -478235062#1 368412158#1 -876449603#5 -876449603#3 -876449603#1 -876449603#0 -872223450#1 -872223450#0 872223445#6 872223445#7 872223445#8 218526282#0 218526282#1 218526282#2 218526282#3 218526282#5 218526282#6 464283097#2-AddedOnRampEdge 464283097#2 464283097#4"/>
    </vehicle>
    <vehicle id="98" depart="49.00">
        <route edges="368412177#0 368412177#1 279717600#2 279717600#3 870292572#2 872223450#0 872223450#1 872223450#3 876449603#1 876449603#3 876449603#5 876449603#6 876449603#7 876449603#8 279956988#2 279956988#3 279956988#4 279956988#5 279956988#6 279956988#7 300173739#3 300173739#4 300173739#5 300173739#6 26754950#0 26754950#1 26754950#2 -26754472#4"/>
    </vehicle>
    <vehicle id="99" depart="49.50">